<?xml version="1.0" encoding="UTF-8"?>

<!-- generated on 2024-07-05 16:46:18 by Eclipse SUMO netedit Version 1.20.0
<configuration xmlns:xsi="http://www.w3.org/2001/XMLSchema-instance" xsi:noNamespaceSchemaLocation="http://sumo.dlr.de/xsd/neteditConfiguration.xsd">

    <input>
        <sumo-net-file value="C:\Users\ahmed\Downloads\map.net.xml"/>
    </input>

    <output>
        <output-file value="C:\Users\ahmed\Downloads\map.net.xml"/>
    </output>

    <processing>
        <geometry.min-radius.fix.railways value="false"/>
        <geometry.max-grade.fix value="false"/>
        <offset.disable-normalization value="true"/>
        <lefthand value="0"/>
    </processing>

    <junctions>
        <no-turnarounds value="true"/>
        <junctions.corner-detail value="5"/>
        <junctions.limit-turn-speed value="5.50"/>
        <rectangular-lane-cut value="0"/>
    </junctions>

    <pedestrian>
        <walkingareas value="0"/>
    </pedestrian>

</configuration>
-->

<net version="1.20" junctionCornerDetail="5" limitTurnSpeed="5.50" xmlns:xsi="http://www.w3.org/2001/XMLSchema-instance" xsi:noNamespaceSchemaLocation="http://sumo.dlr.de/xsd/net_file.xsd">

    <location netOffset="-462755.76,-3156910.35" convBoundary="0.00,0.00,1399.49,1008.20" origBoundary="-81.380726,28.538477,-81.366424,28.547575" projParameter="+proj=utm +zone=17 +ellps=WGS84 +datum=WGS84 +units=m +no_defs"/>

    <type id="highway.footway" priority="1" numLanes="1" speed="2.78" allow="pedestrian" oneway="1" width="2.00"/>
    <type id="highway.pedestrian" priority="1" numLanes="1" speed="2.78" allow="pedestrian" oneway="1" width="2.00"/>
    <type id="highway.primary" priority="12" numLanes="2" speed="27.78" disallow="tram rail_urban rail rail_electric rail_fast ship container cable_car subway aircraft wheelchair scooter drone" oneway="0"/>
    <type id="highway.residential" priority="3" numLanes="1" speed="13.89" disallow="tram rail_urban rail rail_electric rail_fast ship container cable_car subway aircraft wheelchair scooter drone" oneway="0"/>
    <type id="highway.secondary" priority="11" numLanes="1" speed="27.78" disallow="tram rail_urban rail rail_electric rail_fast ship container cable_car subway aircraft wheelchair scooter drone" oneway="0"/>
    <type id="highway.service" priority="1" numLanes="1" speed="5.56" allow="pedestrian delivery bicycle" oneway="0"/>
    <type id="highway.tertiary" priority="10" numLanes="1" speed="22.22" disallow="tram rail_urban rail rail_electric rail_fast ship container cable_car subway aircraft wheelchair scooter drone" oneway="0"/>

    <edge id=":10097107211_0" function="internal">
        <lane id=":10097107211_0_0" index="0" disallow="tram rail_urban rail rail_electric rail_fast ship container cable_car subway aircraft wheelchair scooter drone" speed="15.65" length="5.38" shape="637.02,806.36 631.63,806.35"/>
        <lane id=":10097107211_0_1" index="1" disallow="tram rail_urban rail rail_electric rail_fast ship container cable_car subway aircraft wheelchair scooter drone" speed="15.65" length="5.38" shape="637.02,803.16 631.64,803.15"/>
    </edge>
    <edge id=":10097107211_2" function="internal">
        <lane id=":10097107211_2_0" index="0" allow="pedestrian delivery bicycle" speed="4.87" length="4.00" shape="633.85,794.92 634.17,795.73 634.80,796.30 635.75,796.65 637.02,796.76"/>
    </edge>
    <edge id=":10097107211_3" function="internal">
        <lane id=":10097107211_3_0" index="0" allow="pedestrian delivery bicycle" speed="6.32" length="9.56" shape="633.85,794.92 634.24,798.53 634.00,801.10 633.13,802.64 631.64,803.15"/>
    </edge>
    <edge id=":10097107211_4" function="internal">
        <lane id=":10097107211_4_0" index="0" disallow="tram rail_urban rail rail_electric rail_fast ship container cable_car subway aircraft wheelchair scooter drone" speed="15.65" length="5.37" shape="631.65,796.75 637.02,796.76"/>
        <lane id=":10097107211_4_1" index="1" disallow="tram rail_urban rail rail_electric rail_fast ship container cable_car subway aircraft wheelchair scooter drone" speed="15.65" length="5.37" shape="631.64,799.95 637.02,799.96"/>
    </edge>
    <edge id=":10097107212_0" function="internal">
        <lane id=":10097107212_0_0" index="0" allow="pedestrian delivery bicycle" speed="5.56" length="5.05" shape="631.51,790.32 632.40,791.54 633.03,792.38 633.48,793.29 633.82,794.73"/>
    </edge>
    <edge id=":10149317370_0" function="internal">
        <lane id=":10149317370_0_0" index="0" disallow="tram rail_urban rail rail_electric rail_fast ship container cable_car subway aircraft wheelchair scooter drone" speed="13.41" length="0.30" shape="475.45,388.33 475.45,388.63"/>
        <lane id=":10149317370_0_1" index="1" disallow="tram rail_urban rail rail_electric rail_fast ship container cable_car subway aircraft wheelchair scooter drone" speed="13.41" length="0.30" shape="472.25,388.30 472.25,388.60"/>
        <lane id=":10149317370_0_2" index="2" disallow="tram rail_urban rail rail_electric rail_fast ship container cable_car subway aircraft wheelchair scooter drone" speed="13.41" length="0.30" shape="469.05,388.27 469.05,388.57"/>
    </edge>
    <edge id=":11751853030_0" function="internal">
        <lane id=":11751853030_0_0" index="0" allow="pedestrian delivery bicycle" speed="5.02" length="5.02" shape="1061.75,476.66 1060.37,476.80 1059.39,477.36 1058.79,478.32 1058.57,479.68"/>
    </edge>
    <edge id=":11751853030_1" function="internal">
        <lane id=":11751853030_1_0" index="0" allow="pedestrian delivery bicycle" speed="6.91" length="10.17" shape="1061.75,476.66 1058.98,476.17 1057.02,474.94 1055.86,472.96 1055.51,470.23"/>
    </edge>
    <edge id=":11751853030_2" function="internal">
        <lane id=":11751853030_2_0" index="0" allow="pedestrian delivery bicycle" speed="3.65" length="4.67" shape="1061.75,476.66 1060.58,475.81 1060.20,475.00 1060.63,474.22 1061.86,473.46"/>
    </edge>
    <edge id=":11751853030_3" function="internal">
        <lane id=":11751853030_3_0" index="0" allow="pedestrian delivery bicycle" speed="5.11" length="5.08" shape="1058.71,470.28 1058.89,471.63 1059.47,472.61 1060.46,473.22 1061.86,473.46"/>
    </edge>
    <edge id=":11751853030_4" function="internal">
        <lane id=":11751853030_4_0" index="0" disallow="tram rail_urban rail rail_electric rail_fast ship container cable_car subway aircraft wheelchair scooter drone" speed="13.89" length="9.40" shape="1058.71,470.28 1058.57,479.68"/>
    </edge>
    <edge id=":11751853030_5" function="internal">
        <lane id=":11751853030_5_0" index="0" disallow="tram rail_urban rail rail_electric rail_fast ship container cable_car subway aircraft wheelchair scooter drone" speed="13.89" length="9.40" shape="1055.37,479.63 1055.51,470.23"/>
    </edge>
    <edge id=":11751853030_6" function="internal">
        <lane id=":11751853030_6_0" index="0" allow="pedestrian delivery bicycle" speed="6.84" length="3.28" shape="1055.37,479.63 1055.81,476.85 1056.06,476.46"/>
    </edge>
    <edge id=":11751853030_7" function="internal">
        <lane id=":11751853030_7_0" index="0" allow="pedestrian delivery bicycle" speed="6.84" length="6.98" shape="1056.06,476.46 1057.04,474.89 1059.06,473.76 1061.86,473.46"/>
    </edge>
    <edge id=":11751853031_0" function="internal">
        <lane id=":11751853031_0_0" index="0" allow="pedestrian delivery bicycle" speed="5.56" length="5.07" shape="1067.79,476.83 1062.73,476.69"/>
    </edge>
    <edge id=":11751853031_1" function="internal">
        <lane id=":11751853031_1_0" index="0" allow="pedestrian delivery bicycle" speed="3.65" length="1.44" shape="1067.79,476.83 1066.61,476.01"/>
    </edge>
    <edge id=":11751853031_4" function="internal">
        <lane id=":11751853031_4_0" index="0" allow="pedestrian delivery bicycle" speed="3.65" length="3.23" shape="1066.61,476.01 1066.23,475.20 1066.64,474.41 1067.86,473.63"/>
    </edge>
    <edge id=":11751853031_2" function="internal">
        <lane id=":11751853031_2_0" index="0" allow="pedestrian delivery bicycle" speed="5.56" length="5.02" shape="1062.84,473.49 1067.86,473.63"/>
    </edge>
    <edge id=":11751853031_3" function="internal">
        <lane id=":11751853031_3_0" index="0" allow="pedestrian delivery bicycle" speed="3.65" length="1.44" shape="1062.84,473.49 1064.01,474.33"/>
    </edge>
    <edge id=":11751853031_5" function="internal">
        <lane id=":11751853031_5_0" index="0" allow="pedestrian delivery bicycle" speed="3.65" length="3.23" shape="1064.01,474.33 1064.38,475.15 1063.95,475.93 1062.73,476.69"/>
    </edge>
    <edge id=":1411916029_0" function="internal">
        <lane id=":1411916029_0_0" index="0" disallow="tram rail_urban rail rail_electric rail_fast ship container cable_car subway aircraft wheelchair scooter drone" speed="13.89" length="0.30" shape="414.82,491.55 414.52,491.55"/>
    </edge>
    <edge id=":1411916030_0" function="internal">
        <lane id=":1411916030_0_0" index="0" disallow="tram rail_urban rail rail_electric rail_fast ship container cable_car subway aircraft wheelchair scooter drone" speed="13.89" length="0.30" shape="236.89,499.97 236.89,500.27"/>
    </edge>
    <edge id=":1411916031_0" function="internal">
        <lane id=":1411916031_0_0" index="0" disallow="tram rail_urban rail rail_electric rail_fast ship container cable_car subway aircraft wheelchair scooter drone" speed="13.89" length="0.29" shape="236.93,548.38 236.93,548.68"/>
    </edge>
    <edge id=":1600625358_0" function="internal">
        <lane id=":1600625358_0_0" index="0" disallow="tram rail_urban rail rail_electric rail_fast ship container cable_car subway aircraft wheelchair scooter drone" speed="22.22" length="3.07" shape="758.97,420.58 755.91,420.52"/>
    </edge>
    <edge id=":1600625358_1" function="internal">
        <lane id=":1600625358_1_0" index="0" disallow="tram rail_urban rail rail_electric rail_fast ship container cable_car subway aircraft wheelchair scooter drone" speed="22.22" length="3.07" shape="755.97,417.32 759.04,417.38"/>
    </edge>
    <edge id=":1600625627_0" function="internal">
        <lane id=":1600625627_0_0" index="0" disallow="tram rail_urban rail rail_electric rail_fast ship container cable_car subway aircraft wheelchair scooter drone" speed="13.89" length="5.00" shape="1056.32,706.32 1056.24,711.32"/>
    </edge>
    <edge id=":1600625627_1" function="internal">
        <lane id=":1600625627_1_0" index="0" disallow="tram rail_urban rail rail_electric rail_fast ship container cable_car subway aircraft wheelchair scooter drone" speed="13.89" length="5.00" shape="1053.04,711.27 1053.12,706.27"/>
    </edge>
    <edge id=":1600625939_0" function="internal">
        <lane id=":1600625939_0_0" index="0" disallow="tram rail_urban rail rail_electric rail_fast ship container cable_car subway aircraft wheelchair scooter drone" speed="15.65" length="1.47" shape="993.61,808.87 993.15,808.86 992.84,808.83 992.52,808.78 992.06,808.75"/>
        <lane id=":1600625939_0_1" index="1" disallow="tram rail_urban rail rail_electric rail_fast ship container cable_car subway aircraft wheelchair scooter drone" speed="15.65" length="1.47" shape="993.50,805.67 993.09,805.66 992.81,805.63 992.53,805.58 992.12,805.55"/>
    </edge>
    <edge id=":1600625939_2" function="internal">
        <lane id=":1600625939_2_0" index="0" disallow="tram rail_urban rail rail_electric rail_fast ship container cable_car subway aircraft wheelchair scooter drone" speed="15.65" length="1.14" shape="992.24,799.15 992.55,799.18 992.76,799.22 992.97,799.26 993.28,799.27"/>
        <lane id=":1600625939_2_1" index="1" disallow="tram rail_urban rail rail_electric rail_fast ship container cable_car subway aircraft wheelchair scooter drone" speed="15.65" length="1.14" shape="992.18,802.35 993.39,802.47"/>
    </edge>
    <edge id=":2195233208_0" function="internal">
        <lane id=":2195233208_0_0" index="0" disallow="tram rail_urban rail rail_electric rail_fast ship container cable_car subway aircraft wheelchair scooter drone" speed="15.65" length="0.28" shape="1186.14,810.11 1185.86,810.11"/>
        <lane id=":2195233208_0_1" index="1" disallow="tram rail_urban rail rail_electric rail_fast ship container cable_car subway aircraft wheelchair scooter drone" speed="15.65" length="0.28" shape="1186.17,806.91 1185.88,806.91"/>
    </edge>
    <edge id=":2195233208_2" function="internal">
        <lane id=":2195233208_2_0" index="0" disallow="tram rail_urban rail rail_electric rail_fast ship container cable_car subway aircraft wheelchair scooter drone" speed="15.65" length="0.32" shape="1185.92,800.51 1186.24,800.51"/>
        <lane id=":2195233208_2_1" index="1" disallow="tram rail_urban rail rail_electric rail_fast ship container cable_car subway aircraft wheelchair scooter drone" speed="15.65" length="0.32" shape="1185.90,803.71 1186.21,803.71"/>
    </edge>
    <edge id=":2195233209_0" function="internal">
        <lane id=":2195233209_0_0" index="0" disallow="tram rail_urban rail rail_electric rail_fast ship container cable_car subway aircraft wheelchair scooter drone" speed="15.65" length="0.30" shape="1204.63,810.27 1204.33,810.27"/>
        <lane id=":2195233209_0_1" index="1" disallow="tram rail_urban rail rail_electric rail_fast ship container cable_car subway aircraft wheelchair scooter drone" speed="15.65" length="0.30" shape="1204.65,807.07 1204.35,807.07"/>
    </edge>
    <edge id=":2195233209_2" function="internal">
        <lane id=":2195233209_2_0" index="0" disallow="tram rail_urban rail rail_electric rail_fast ship container cable_car subway aircraft wheelchair scooter drone" speed="15.65" length="0.30" shape="1204.39,800.67 1204.69,800.67"/>
        <lane id=":2195233209_2_1" index="1" disallow="tram rail_urban rail rail_electric rail_fast ship container cable_car subway aircraft wheelchair scooter drone" speed="15.65" length="0.30" shape="1204.37,803.87 1204.67,803.87"/>
    </edge>
    <edge id=":2195307524_0" function="internal">
        <lane id=":2195307524_0_0" index="0" disallow="tram rail_urban rail rail_electric rail_fast ship container cable_car subway aircraft wheelchair scooter drone" speed="13.41" length="4.76" shape="473.86,562.17 473.77,567.01"/>
        <lane id=":2195307524_0_1" index="1" disallow="tram rail_urban rail rail_electric rail_fast ship container cable_car subway aircraft wheelchair scooter drone" speed="13.41" length="4.76" shape="470.66,562.15 470.57,566.91"/>
        <lane id=":2195307524_0_2" index="2" disallow="tram rail_urban rail rail_electric rail_fast ship container cable_car subway aircraft wheelchair scooter drone" speed="13.41" length="4.76" shape="467.46,562.13 467.37,566.81"/>
    </edge>
    <edge id=":2195307537_0" function="internal">
        <lane id=":2195307537_0_0" index="0" disallow="tram rail_urban rail rail_electric rail_fast ship container cable_car subway aircraft wheelchair scooter drone" speed="13.41" length="8.27" shape="473.52,575.60 473.36,583.82"/>
        <lane id=":2195307537_0_1" index="1" disallow="tram rail_urban rail rail_electric rail_fast ship container cable_car subway aircraft wheelchair scooter drone" speed="13.41" length="8.27" shape="470.32,575.51 470.16,583.78"/>
        <lane id=":2195307537_0_2" index="2" disallow="tram rail_urban rail rail_electric rail_fast ship container cable_car subway aircraft wheelchair scooter drone" speed="13.41" length="8.27" shape="467.12,575.43 466.96,583.75"/>
    </edge>
    <edge id=":2195307541_0" function="internal">
        <lane id=":2195307541_0_0" index="0" disallow="tram rail_urban rail rail_electric rail_fast ship container cable_car subway aircraft wheelchair scooter drone" speed="13.89" length="3.50" shape="319.49,673.78 319.44,677.29"/>
    </edge>
    <edge id=":2199385309_0" function="internal">
        <lane id=":2199385309_0_0" index="0" disallow="tram rail_urban rail rail_electric rail_fast ship container cable_car subway aircraft wheelchair scooter drone" speed="22.22" length="0.30" shape="1190.98,420.89 1190.71,421.02"/>
    </edge>
    <edge id=":2199385309_1" function="internal">
        <lane id=":2199385309_1_0" index="0" disallow="tram rail_urban rail rail_electric rail_fast ship container cable_car subway aircraft wheelchair scooter drone" speed="22.22" length="0.21" shape="1189.44,418.08 1189.63,418.00"/>
    </edge>
    <edge id=":2204106775_0" function="internal">
        <lane id=":2204106775_0_0" index="0" disallow="tram rail_urban rail rail_electric rail_fast ship container cable_car subway aircraft wheelchair scooter drone" speed="13.89" length="3.22" shape="264.64,401.03 264.51,404.25"/>
    </edge>
    <edge id=":2204106775_1" function="internal">
        <lane id=":2204106775_1_0" index="0" disallow="tram rail_urban rail rail_electric rail_fast ship container cable_car subway aircraft wheelchair scooter drone" speed="13.89" length="3.37" shape="261.31,404.25 261.45,400.88"/>
    </edge>
    <edge id=":2204106776_0" function="internal">
        <lane id=":2204106776_0_0" index="0" disallow="tram rail_urban rail rail_electric rail_fast ship container cable_car subway aircraft wheelchair scooter drone" speed="22.22" length="4.41" shape="272.65,411.03 268.25,411.07"/>
    </edge>
    <edge id=":2204106776_1" function="internal">
        <lane id=":2204106776_1_0" index="0" disallow="tram rail_urban rail rail_electric rail_fast ship container cable_car subway aircraft wheelchair scooter drone" speed="22.22" length="4.49" shape="268.15,407.87 272.64,407.83"/>
    </edge>
    <edge id=":2204106780_0" function="internal">
        <lane id=":2204106780_0_0" index="0" disallow="tram rail_urban rail rail_electric rail_fast ship container cable_car subway aircraft wheelchair scooter drone" speed="13.89" length="4.19" shape="912.29,411.74 912.22,412.98 912.08,413.82 911.89,414.65 911.67,415.88"/>
    </edge>
    <edge id=":2204106780_1" function="internal">
        <lane id=":2204106780_1_0" index="0" disallow="tram rail_urban rail rail_electric rail_fast ship container cable_car subway aircraft wheelchair scooter drone" speed="13.89" length="4.33" shape="908.49,415.55 908.71,414.28 908.89,413.42 909.03,412.55 909.10,411.27"/>
    </edge>
    <edge id=":2204106781_0" function="internal">
        <lane id=":2204106781_0_0" index="0" disallow="tram rail_urban rail rail_electric rail_fast ship container cable_car subway aircraft wheelchair scooter drone" speed="13.89" length="4.21" shape="1059.64,414.07 1059.56,418.29"/>
    </edge>
    <edge id=":2204106781_1" function="internal">
        <lane id=":2204106781_1_0" index="0" disallow="tram rail_urban rail rail_electric rail_fast ship container cable_car subway aircraft wheelchair scooter drone" speed="13.89" length="4.21" shape="1056.36,418.23 1056.44,414.01"/>
    </edge>
    <edge id=":2204106783_0" function="internal">
        <lane id=":2204106783_0_0" index="0" disallow="tram rail_urban rail rail_electric rail_fast ship container cable_car subway aircraft wheelchair scooter drone" speed="22.22" length="4.38" shape="902.20,423.08 897.82,422.91"/>
    </edge>
    <edge id=":2204106783_1" function="internal">
        <lane id=":2204106783_1_0" index="0" disallow="tram rail_urban rail rail_electric rail_fast ship container cable_car subway aircraft wheelchair scooter drone" speed="22.22" length="4.38" shape="897.94,419.71 902.32,419.88"/>
    </edge>
    <edge id=":2204106784_0" function="internal">
        <lane id=":2204106784_0_0" index="0" disallow="tram rail_urban rail rail_electric rail_fast ship container cable_car subway aircraft wheelchair scooter drone" speed="22.22" length="4.34" shape="920.49,423.79 916.16,423.63"/>
    </edge>
    <edge id=":2204106784_1" function="internal">
        <lane id=":2204106784_1_0" index="0" disallow="tram rail_urban rail rail_electric rail_fast ship container cable_car subway aircraft wheelchair scooter drone" speed="22.22" length="4.32" shape="916.29,420.43 920.61,420.59"/>
    </edge>
    <edge id=":2204106785_0" function="internal">
        <lane id=":2204106785_0_0" index="0" disallow="tram rail_urban rail rail_electric rail_fast ship container cable_car subway aircraft wheelchair scooter drone" speed="13.89" length="4.43" shape="909.82,428.28 909.16,432.66"/>
    </edge>
    <edge id=":2204106785_1" function="internal">
        <lane id=":2204106785_1_0" index="0" disallow="tram rail_urban rail rail_electric rail_fast ship container cable_car subway aircraft wheelchair scooter drone" speed="13.89" length="4.42" shape="906.00,432.18 906.66,427.81"/>
    </edge>
    <edge id=":5367573631_0" function="internal">
        <lane id=":5367573631_0_0" index="0" disallow="tram rail_urban rail rail_electric rail_fast ship container cable_car subway aircraft wheelchair scooter drone" speed="22.22" length="0.30" shape="169.99,567.61 169.70,567.61"/>
    </edge>
    <edge id=":5367573631_1" function="internal">
        <lane id=":5367573631_1_0" index="0" disallow="tram rail_urban rail rail_electric rail_fast ship container cable_car subway aircraft wheelchair scooter drone" speed="22.22" length="0.30" shape="169.73,564.41 170.03,564.41"/>
    </edge>
    <edge id=":5367573659_0" function="internal">
        <lane id=":5367573659_0_0" index="0" disallow="tram rail_urban rail rail_electric rail_fast ship container cable_car subway aircraft wheelchair scooter drone" speed="13.41" length="0.29" shape="175.87,805.73 175.58,805.73"/>
        <lane id=":5367573659_0_1" index="1" disallow="tram rail_urban rail rail_electric rail_fast ship container cable_car subway aircraft wheelchair scooter drone" speed="13.41" length="0.29" shape="175.85,802.53 175.55,802.53"/>
    </edge>
    <edge id=":5367573659_2" function="internal">
        <lane id=":5367573659_2_0" index="0" disallow="tram rail_urban rail rail_electric rail_fast ship container cable_car subway aircraft wheelchair scooter drone" speed="13.41" length="0.31" shape="175.50,796.13 175.81,796.13"/>
        <lane id=":5367573659_2_1" index="1" disallow="tram rail_urban rail rail_electric rail_fast ship container cable_car subway aircraft wheelchair scooter drone" speed="13.41" length="0.31" shape="175.53,799.33 175.83,799.33"/>
    </edge>
    <edge id=":5367573666_0" function="internal">
        <lane id=":5367573666_0_0" index="0" disallow="tram rail_urban rail rail_electric rail_fast ship container cable_car subway aircraft wheelchair scooter drone" speed="13.89" length="0.31" shape="170.58,684.60 170.28,684.64"/>
    </edge>
    <edge id=":5367573666_1" function="internal">
        <lane id=":5367573666_1_0" index="0" disallow="tram rail_urban rail rail_electric rail_fast ship container cable_car subway aircraft wheelchair scooter drone" speed="13.89" length="0.28" shape="169.91,681.46 170.19,681.42"/>
    </edge>
    <edge id=":5367573668_0" function="internal">
        <lane id=":5367573668_0_0" index="0" disallow="tram rail_urban rail rail_electric rail_fast ship container cable_car subway aircraft wheelchair scooter drone" speed="13.89" length="0.10" shape="151.65,686.65 151.72,686.64"/>
    </edge>
    <edge id=":5367573668_1" function="internal">
        <lane id=":5367573668_1_0" index="0" disallow="tram rail_urban rail rail_electric rail_fast ship container cable_car subway aircraft wheelchair scooter drone" speed="13.89" length="0.10" shape="151.26,683.48 151.33,683.47"/>
    </edge>
    <edge id=":5367573830_0" function="internal">
        <lane id=":5367573830_0_0" index="0" disallow="tram rail_urban rail rail_electric rail_fast ship container cable_car subway aircraft wheelchair scooter drone" speed="13.89" length="5.06" shape="306.70,684.55 301.64,684.49"/>
    </edge>
    <edge id=":5367573830_1" function="internal">
        <lane id=":5367573830_1_0" index="0" disallow="tram rail_urban rail rail_electric rail_fast ship container cable_car subway aircraft wheelchair scooter drone" speed="13.89" length="5.11" shape="301.65,681.29 306.76,681.35"/>
    </edge>
    <edge id=":5367573831_0" function="internal">
        <lane id=":5367573831_0_0" index="0" disallow="tram rail_urban rail rail_electric rail_fast ship container cable_car subway aircraft wheelchair scooter drone" speed="13.41" length="0.87" shape="314.50,804.98 315.37,804.96"/>
        <lane id=":5367573831_0_1" index="1" disallow="tram rail_urban rail rail_electric rail_fast ship container cable_car subway aircraft wheelchair scooter drone" speed="13.41" length="0.87" shape="314.45,801.78 315.32,801.76"/>
    </edge>
    <edge id=":5367573831_2" function="internal">
        <lane id=":5367573831_2_0" index="0" disallow="tram rail_urban rail rail_electric rail_fast ship container cable_car subway aircraft wheelchair scooter drone" speed="13.41" length="0.88" shape="315.23,795.36 314.35,795.38"/>
        <lane id=":5367573831_2_1" index="1" disallow="tram rail_urban rail rail_electric rail_fast ship container cable_car subway aircraft wheelchair scooter drone" speed="13.41" length="0.88" shape="315.28,798.56 314.40,798.58"/>
    </edge>
    <edge id=":5367573842_0" function="internal">
        <lane id=":5367573842_0_0" index="0" disallow="tram rail_urban rail rail_electric rail_fast ship container cable_car subway aircraft wheelchair scooter drone" speed="13.89" length="2.84" shape="392.18,807.80 392.30,808.63 392.29,809.20 392.23,809.78 392.18,810.63"/>
    </edge>
    <edge id=":5367573842_1" function="internal">
        <lane id=":5367573842_1_0" index="0" disallow="tram rail_urban rail rail_electric rail_fast ship container cable_car subway aircraft wheelchair scooter drone" speed="13.89" length="2.17" shape="388.98,810.59 389.03,809.95 389.10,809.51 389.13,809.07 389.04,808.44"/>
    </edge>
    <edge id=":5367573909_0" function="internal">
        <lane id=":5367573909_0_0" index="0" disallow="tram rail_urban rail rail_electric rail_fast ship container cable_car subway aircraft wheelchair scooter drone" speed="22.22" length="2.92" shape="375.02,411.36 372.10,411.32"/>
    </edge>
    <edge id=":5367573909_1" function="internal">
        <lane id=":5367573909_1_0" index="0" disallow="tram rail_urban rail rail_electric rail_fast ship container cable_car subway aircraft wheelchair scooter drone" speed="22.22" length="2.94" shape="372.14,408.12 375.08,408.16"/>
    </edge>
    <edge id=":5367573935_0" function="internal">
        <lane id=":5367573935_0_0" index="0" allow="pedestrian delivery bicycle" speed="4.71" length="4.26" shape="475.05,711.47 473.69,711.58 472.71,711.97 472.12,712.63 471.92,713.56"/>
    </edge>
    <edge id=":5367573935_1" function="internal">
        <lane id=":5367573935_1_0" index="0" allow="pedestrian delivery bicycle" speed="3.65" length="4.67" shape="475.05,711.47 473.86,710.65 473.47,709.84 473.88,709.05 475.10,708.27"/>
    </edge>
    <edge id=":5367573935_2" function="internal">
        <lane id=":5367573935_2_0" index="0" allow="pedestrian delivery bicycle" speed="5.05" length="5.02" shape="472.01,705.13 472.19,706.48 472.77,707.46 473.73,708.05 475.10,708.27"/>
    </edge>
    <edge id=":5367573935_3" function="internal">
        <lane id=":5367573935_3_0" index="0" disallow="tram rail_urban rail rail_electric rail_fast ship container cable_car subway aircraft wheelchair scooter drone" speed="13.41" length="8.43" shape="472.01,705.13 471.92,713.56"/>
        <lane id=":5367573935_3_1" index="1" disallow="tram rail_urban rail rail_electric rail_fast ship container cable_car subway aircraft wheelchair scooter drone" speed="13.41" length="8.43" shape="468.81,705.09 468.72,713.52"/>
        <lane id=":5367573935_3_2" index="2" disallow="tram rail_urban rail rail_electric rail_fast ship container cable_car subway aircraft wheelchair scooter drone" speed="13.41" length="8.43" shape="465.61,705.05 465.52,713.49"/>
    </edge>
    <edge id=":5367573936_0" function="internal">
        <lane id=":5367573936_0_0" index="0" disallow="tram rail_urban rail rail_electric rail_fast ship container cable_car subway aircraft wheelchair scooter drone" speed="22.22" length="4.45" shape="484.75,414.99 480.30,414.86"/>
    </edge>
    <edge id=":5367573936_1" function="internal">
        <lane id=":5367573936_1_0" index="0" disallow="tram rail_urban rail rail_electric rail_fast ship container cable_car subway aircraft wheelchair scooter drone" speed="22.22" length="4.39" shape="480.43,411.66 484.82,411.79"/>
    </edge>
    <edge id=":5368780749_0" function="internal">
        <lane id=":5368780749_0_0" index="0" disallow="tram rail_urban rail rail_electric rail_fast ship container cable_car subway aircraft wheelchair scooter drone" speed="13.41" length="3.63" shape="471.41,788.32 471.38,791.95"/>
        <lane id=":5368780749_0_1" index="1" disallow="tram rail_urban rail rail_electric rail_fast ship container cable_car subway aircraft wheelchair scooter drone" speed="13.41" length="3.63" shape="468.21,788.30 468.18,791.93"/>
        <lane id=":5368780749_0_2" index="2" disallow="tram rail_urban rail rail_electric rail_fast ship container cable_car subway aircraft wheelchair scooter drone" speed="13.41" length="3.63" shape="465.01,788.28 464.98,791.90"/>
    </edge>
    <edge id=":5368780750_0" function="internal">
        <lane id=":5368780750_0_0" index="0" disallow="tram rail_urban rail rail_electric rail_fast ship container cable_car subway aircraft wheelchair scooter drone" speed="15.65" length="4.66" shape="481.43,805.37 476.79,805.36"/>
        <lane id=":5368780750_0_1" index="1" disallow="tram rail_urban rail rail_electric rail_fast ship container cable_car subway aircraft wheelchair scooter drone" speed="15.65" length="4.66" shape="481.45,802.17 476.77,802.16"/>
    </edge>
    <edge id=":5368780750_2" function="internal">