<?xml version="1.0" encoding="UTF-8"?>

<!-- generated on 2024-05-14 14:35:38 by Eclipse SUMO netedit Version 1.19.0
<configuration xmlns:xsi="http://www.w3.org/2001/XMLSchema-instance" xsi:noNamespaceSchemaLocation="http://sumo.dlr.de/xsd/neteditConfiguration.xsd">

    <input>
        <sumo-net-file value="C:\Users\AhmedShaabanSayedMoh\Desktop\ML model\maps\osm.net.xml"/>
    </input>

    <output>
        <output-file value="C:\Users\AhmedShaabanSayedMoh\Desktop\ML model\maps\osm.net.xml"/>
        <output.street-names value="true"/>
    </output>

    <processing>
        <geometry.min-radius.fix.railways value="false"/>
        <geometry.max-grade.fix value="false"/>
        <offset.disable-normalization value="true"/>
        <lefthand value="0"/>
    </processing>

    <junctions>
        <no-turnarounds value="true"/>
        <junctions.corner-detail value="5"/>
        <junctions.limit-turn-speed value="5.50"/>
        <rectangular-lane-cut value="0"/>
    </junctions>

    <pedestrian>
        <walkingareas value="0"/>
    </pedestrian>

</configuration>
-->

<net version="1.16" junctionCornerDetail="5" limitTurnSpeed="5.50" xmlns:xsi="http://www.w3.org/2001/XMLSchema-instance" xsi:noNamespaceSchemaLocation="http://sumo.dlr.de/xsd/net_file.xsd">

    <location netOffset="-464085.03,-3153297.05" convBoundary="-0.53,0.00,2517.75,2018.15" origBoundary="-81.367029,28.505921,-81.341311,28.524137" projParameter="+proj=utm +zone=17 +ellps=WGS84 +datum=WGS84 +units=m +no_defs"/>

    <type id="highway.footway" priority="1" numLanes="1" speed="2.78" allow="pedestrian" oneway="1" width="2.00"/>
    <type id="highway.path" priority="1" numLanes="1" speed="5.56" allow="pedestrian bicycle" oneway="0" width="2.00"/>
    <type id="highway.residential" priority="3" numLanes="1" speed="13.89" disallow="tram rail_urban rail rail_electric rail_fast ship" oneway="0"/>
    <type id="highway.service" priority="1" numLanes="1" speed="5.56" allow="pedestrian delivery bicycle" oneway="0"/>
    <type id="highway.tertiary" priority="10" numLanes="1" speed="22.22" disallow="tram rail_urban rail rail_electric rail_fast ship" oneway="0"/>

    <edge id=":11082818236_0" function="internal">
        <lane id=":11082818236_0_0" index="0" allow="pedestrian delivery bicycle" speed="5.04" length="5.00" shape="1497.92,874.18 1499.28,874.00 1500.25,873.42 1500.84,872.45 1501.04,871.10"/>
    </edge>
    <edge id=":11082818236_1" function="internal">
        <lane id=":11082818236_1_0" index="0" allow="pedestrian delivery bicycle" speed="3.65" length="4.67" shape="1497.92,874.18 1499.11,874.99 1499.51,875.79 1499.10,876.59 1497.90,877.38"/>
    </edge>
    <edge id=":11082818236_2" function="internal">
        <lane id=":11082818236_2_0" index="0" allow="pedestrian delivery bicycle" speed="5.04" length="5.00" shape="1500.98,880.50 1500.80,879.14 1500.22,878.17 1499.25,877.58 1497.90,877.38"/>
    </edge>
    <edge id=":11082818236_3" function="internal">
        <lane id=":11082818236_3_0" index="0" disallow="tram rail_urban rail rail_electric rail_fast ship" speed="22.22" length="9.40" shape="1500.98,880.50 1501.04,871.10"/>
        <lane id=":11082818236_3_1" index="1" disallow="tram rail_urban rail rail_electric rail_fast ship" speed="22.22" length="9.40" shape="1504.18,880.52 1504.24,871.12"/>
    </edge>
    <edge id=":11082818238_0" function="internal">
        <lane id=":11082818238_0_0" index="0" allow="pedestrian delivery bicycle" speed="3.65" length="4.67" shape="1479.65,885.01 1478.84,886.20 1478.03,886.59 1477.24,886.18 1476.45,884.97"/>
    </edge>
    <edge id=":1470858773_0" function="internal">
        <lane id=":1470858773_0_0" index="0" disallow="tram rail_urban rail rail_electric rail_fast ship" speed="3.72" length="4.63" shape="-0.14,798.57 -1.33,797.78 -1.72,796.98 -1.32,796.19 -0.13,795.40"/>
    </edge>
    <edge id=":1647255107_0" function="internal">
        <lane id=":1647255107_0_0" index="0" disallow="tram rail_urban rail rail_electric rail_fast ship" speed="3.65" length="4.67" shape="2148.12,605.69 2148.93,604.50 2149.73,604.10 2150.53,604.50 2151.32,605.71"/>
    </edge>
    <edge id=":2156078097_0" function="internal">
        <lane id=":2156078097_0_0" index="0" allow="pedestrian delivery bicycle" speed="5.51" length="5.56" shape="1619.61,1047.35 1618.33,1047.68 1617.39,1048.44 1616.78,1049.65 1616.49,1051.30"/>
    </edge>
    <edge id=":2156078097_1" function="internal">
        <lane id=":2156078097_1_0" index="0" allow="pedestrian delivery bicycle" speed="5.56" length="6.90" shape="1619.61,1047.35 1612.73,1047.84"/>
    </edge>
    <edge id=":2156078097_2" function="internal">
        <lane id=":2156078097_2_0" index="0" allow="pedestrian delivery bicycle" speed="3.65" length="4.67" shape="1619.61,1047.35 1618.36,1046.64 1617.90,1045.87 1618.24,1045.05 1619.38,1044.16"/>
    </edge>
    <edge id=":2156078097_3" function="internal">
        <lane id=":2156078097_3_0" index="0" allow="pedestrian delivery bicycle" speed="5.56" length="6.91" shape="1612.49,1044.65 1619.38,1044.16"/>
    </edge>
    <edge id=":2156078097_4" function="internal">
        <lane id=":2156078097_4_0" index="0" allow="pedestrian delivery bicycle" speed="5.56" length="8.96" shape="1612.49,1044.65 1614.40,1044.95 1615.70,1046.16 1616.40,1048.28 1616.49,1051.30"/>
    </edge>
    <edge id=":2156078097_5" function="internal">
        <lane id=":2156078097_5_0" index="0" allow="pedestrian delivery bicycle" speed="3.65" length="4.67" shape="1612.49,1044.65 1613.74,1045.36 1614.20,1046.13 1613.86,1046.95 1612.73,1047.84"/>
    </edge>
    <edge id=":2156078097_6" function="internal">
        <lane id=":2156078097_6_0" index="0" allow="pedestrian delivery bicycle" speed="4.25" length="3.56" shape="1613.30,1051.10 1613.38,1050.16 1613.41,1049.07 1613.25,1048.18 1612.73,1047.84"/>
    </edge>
    <edge id=":2156078097_7" function="internal">
        <lane id=":2156078097_7_0" index="0" allow="pedestrian delivery bicycle" speed="5.56" length="10.23" shape="1613.30,1051.10 1613.83,1048.22 1615.02,1046.10 1616.87,1044.75 1619.38,1044.16"/>
    </edge>
    <edge id=":2156078097_8" function="internal">
        <lane id=":2156078097_8_0" index="0" allow="pedestrian delivery bicycle" speed="3.65" length="4.67" shape="1613.30,1051.10 1614.17,1049.95 1615.00,1049.60 1615.77,1050.05 1616.49,1051.30"/>
    </edge>
    <edge id=":2156078107_0" function="internal">
        <lane id=":2156078107_0_0" index="0" allow="pedestrian delivery bicycle" speed="5.03" length="5.01" shape="1563.30,1114.23 1561.93,1114.40 1560.95,1114.96 1560.36,1115.93 1560.16,1117.29"/>
    </edge>
    <edge id=":2156078107_1" function="internal">
        <lane id=":2156078107_1_0" index="0" allow="pedestrian delivery bicycle" speed="5.56" length="9.44" shape="1563.30,1114.23 1553.86,1114.09"/>
    </edge>
    <edge id=":2156078107_2" function="internal">
        <lane id=":2156078107_2_0" index="0" allow="pedestrian delivery bicycle" speed="5.56" length="10.21" shape="1563.30,1114.23 1560.54,1113.78 1558.57,1112.57 1557.39,1110.58 1557.01,1107.81"/>
    </edge>
    <edge id=":2156078107_3" function="internal">
        <lane id=":2156078107_3_0" index="0" allow="pedestrian delivery bicycle" speed="3.65" length="4.67" shape="1563.30,1114.23 1562.11,1113.40 1561.73,1112.60 1562.14,1111.80 1563.36,1111.03"/>
    </edge>
    <edge id=":2156078107_4" function="internal">
        <lane id=":2156078107_4_0" index="0" allow="pedestrian delivery bicycle" speed="5.10" length="5.10" shape="1560.21,1107.83 1560.40,1109.21 1560.99,1110.20 1561.98,1110.80 1563.36,1111.03"/>
    </edge>
    <edge id=":2156078107_5" function="internal">
        <lane id=":2156078107_5_0" index="0" allow="pedestrian delivery bicycle" speed="5.56" length="9.46" shape="1560.21,1107.83 1560.16,1117.29"/>
    </edge>
    <edge id=":2156078107_6" function="internal">
        <lane id=":2156078107_6_0" index="0" allow="pedestrian delivery bicycle" speed="5.56" length="10.19" shape="1560.21,1107.83 1559.80,1110.59 1558.61,1112.56 1556.63,1113.72 1553.86,1114.09"/>
    </edge>
    <edge id=":2156078107_7" function="internal">
        <lane id=":2156078107_7_0" index="0" allow="pedestrian delivery bicycle" speed="3.65" length="4.67" shape="1560.21,1107.83 1559.41,1109.03 1558.61,1109.42 1557.81,1109.02 1557.01,1107.81"/>
    </edge>
    <edge id=":2156078107_8" function="internal">
        <lane id=":2156078107_8_0" index="0" allow="pedestrian delivery bicycle" speed="5.03" length="5.01" shape="1553.89,1110.89 1555.25,1110.71 1556.22,1110.14 1556.81,1109.17 1557.01,1107.81"/>
    </edge>
    <edge id=":2156078107_9" function="internal">
        <lane id=":2156078107_9_0" index="0" allow="pedestrian delivery bicycle" speed="5.56" length="9.47" shape="1553.89,1110.89 1563.36,1111.03"/>
    </edge>
    <edge id=":2156078107_10" function="internal">
        <lane id=":2156078107_10_0" index="0" allow="pedestrian delivery bicycle" speed="5.56" length="10.21" shape="1553.89,1110.89 1556.65,1111.32 1558.61,1112.52 1559.78,1114.51 1560.16,1117.29"/>
    </edge>
    <edge id=":2156078107_11" function="internal">
        <lane id=":2156078107_11_0" index="0" allow="pedestrian delivery bicycle" speed="3.65" length="4.67" shape="1553.89,1110.89 1555.08,1111.70 1555.47,1112.51 1555.06,1113.30 1553.86,1114.09"/>
    </edge>
    <edge id=":2156078107_12" function="internal">
        <lane id=":2156078107_12_0" index="0" allow="pedestrian delivery bicycle" speed="5.07" length="5.06" shape="1556.96,1117.27 1556.77,1115.89 1556.19,1114.90 1555.22,1114.30 1553.86,1114.09"/>
    </edge>
    <edge id=":2156078107_13" function="internal">
        <lane id=":2156078107_13_0" index="0" allow="pedestrian delivery bicycle" speed="5.56" length="9.45" shape="1556.96,1117.27 1557.01,1107.81"/>
    </edge>
    <edge id=":2156078107_14" function="internal">
        <lane id=":2156078107_14_0" index="0" allow="pedestrian delivery bicycle" speed="5.56" length="10.22" shape="1556.96,1117.27 1557.38,1114.49 1558.58,1112.53 1560.57,1111.37 1563.36,1111.03"/>
    </edge>
    <edge id=":2156078107_15" function="internal">
        <lane id=":2156078107_15_0" index="0" allow="pedestrian delivery bicycle" speed="3.65" length="4.67" shape="1556.96,1117.27 1557.77,1116.07 1558.57,1115.68 1559.37,1116.08 1560.16,1117.29"/>
    </edge>
    <edge id=":2156078110_0" function="internal">
        <lane id=":2156078110_0_0" index="0" allow="pedestrian delivery bicycle" speed="5.56" length="0.30" shape="1659.42,1122.83 1659.43,1122.53"/>
    </edge>
    <edge id=":2156078110_1" function="internal">
        <lane id=":2156078110_1_0" index="0" allow="pedestrian delivery bicycle" speed="5.56" length="1.34" shape="1659.33,1119.40 1659.71,1119.49 1659.97,1119.58 1660.22,1119.69 1660.58,1119.85"/>
    </edge>
    <edge id=":2156078118_0" function="internal">
        <lane id=":2156078118_0_0" index="0" allow="pedestrian delivery bicycle" speed="5.56" length="5.80" shape="1729.61,1142.97 1727.80,1142.97 1726.30,1143.23 1725.11,1143.74 1724.22,1144.52"/>
    </edge>
    <edge id=":2156078118_1" function="internal">
        <lane id=":2156078118_1_0" index="0" allow="pedestrian delivery bicycle" speed="5.56" length="10.24" shape="1729.61,1142.97 1726.86,1142.39 1724.96,1141.07 1723.93,1139.00 1723.76,1136.19"/>
    </edge>
    <edge id=":2156078118_2" function="internal">
        <lane id=":2156078118_2_0" index="0" allow="pedestrian delivery bicycle" speed="3.65" length="4.67" shape="1729.61,1142.97 1728.46,1142.09 1728.12,1141.27 1728.57,1140.49 1729.82,1139.77"/>
    </edge>
    <edge id=":2156078118_3" function="internal">
        <lane id=":2156078118_3_0" index="0" allow="pedestrian delivery bicycle" speed="5.02" length="5.02" shape="1726.95,1136.45 1727.04,1137.83 1727.54,1138.84 1728.47,1139.49 1729.82,1139.77"/>
    </edge>
    <edge id=":2156078118_4" function="internal">
        <lane id=":2156078118_4_0" index="0" allow="pedestrian delivery bicycle" speed="5.56" length="8.74" shape="1726.95,1136.45 1726.76,1139.04 1726.46,1140.84 1725.73,1142.46 1724.22,1144.52"/>
    </edge>
    <edge id=":2156078118_5" function="internal">
        <lane id=":2156078118_5_0" index="0" allow="pedestrian delivery bicycle" speed="3.65" length="4.67" shape="1726.95,1136.45 1726.06,1137.58 1725.23,1137.92 1724.46,1137.45 1723.76,1136.19"/>
    </edge>
    <edge id=":2156078118_6" function="internal">
        <lane id=":2156078118_6_0" index="0" allow="pedestrian delivery bicycle" speed="5.56" length="6.80" shape="1721.74,1142.50 1722.90,1140.89 1723.43,1139.62 1723.63,1138.21 1723.76,1136.19"/>
    </edge>
    <edge id=":2156078118_7" function="internal">
        <lane id=":2156078118_7_0" index="0" allow="pedestrian delivery bicycle" speed="5.56" length="8.85" shape="1721.74,1142.50 1723.19,1141.17 1725.01,1140.27 1727.22,1139.81 1729.82,1139.77"/>
    </edge>
    <edge id=":2156078118_8" function="internal">
        <lane id=":2156078118_8_0" index="0" allow="pedestrian delivery bicycle" speed="3.65" length="4.67" shape="1721.74,1142.50 1723.12,1142.07 1723.99,1142.26 1724.36,1143.08 1724.22,1144.52"/>
    </edge>
    <edge id=":2156078119_0" function="internal">
        <lane id=":2156078119_0_0" index="0" allow="pedestrian delivery bicycle" speed="5.56" length="8.37" shape="1716.13,1154.47 1714.56,1156.39 1713.53,1157.75 1712.66,1159.21 1711.56,1161.44"/>
    </edge>
    <edge id=":2156078119_1" function="internal">
        <lane id=":2156078119_1_0" index="0" allow="pedestrian delivery bicycle" speed="5.56" length="10.64" shape="1716.13,1154.47 1713.96,1156.47 1711.71,1157.22 1709.40,1156.72 1707.02,1154.97"/>
    </edge>
    <edge id=":2156078119_2" function="internal">
        <lane id=":2156078119_2_0" index="0" allow="pedestrian delivery bicycle" speed="3.65" length="4.67" shape="1716.13,1154.47 1714.75,1154.89 1713.88,1154.70 1713.51,1153.88 1713.65,1152.45"/>
    </edge>
    <edge id=":2156078119_3" function="internal">
        <lane id=":2156078119_3_0" index="0" allow="pedestrian delivery bicycle" speed="4.94" length="5.12" shape="1709.27,1152.69 1710.41,1153.53 1711.52,1153.77 1712.60,1153.41 1713.65,1152.45"/>
    </edge>
    <edge id=":2156078119_4" function="internal">
        <lane id=":2156078119_4_0" index="0" allow="pedestrian delivery bicycle" speed="5.56" length="9.70" shape="1709.27,1152.69 1711.05,1154.85 1712.03,1157.03 1712.20,1159.23 1711.56,1161.44"/>
    </edge>
    <edge id=":2156078119_5" function="internal">
        <lane id=":2156078119_5_0" index="0" allow="pedestrian delivery bicycle" speed="3.65" length="4.67" shape="1709.27,1152.69 1709.56,1154.10 1709.28,1154.95 1708.44,1155.24 1707.02,1154.97"/>
    </edge>
    <edge id=":2156078119_6" function="internal">
        <lane id=":2156078119_6_0" index="0" allow="pedestrian delivery bicycle" speed="5.56" length="5.74" shape="1708.67,1160.08 1708.99,1158.86 1708.82,1157.61 1708.16,1156.31 1707.02,1154.97"/>
    </edge>
    <edge id=":2156078119_7" function="internal">
        <lane id=":2156078119_7_0" index="0" allow="pedestrian delivery bicycle" speed="5.56" length="9.15" shape="1708.67,1160.08 1709.86,1157.64 1710.81,1156.04 1711.93,1154.55 1713.65,1152.45"/>
    </edge>
    <edge id=":2156078119_8" function="internal">
        <lane id=":2156078119_8_0" index="0" allow="pedestrian delivery bicycle" speed="3.65" length="4.67" shape="1708.67,1160.08 1709.90,1159.33 1710.80,1159.31 1711.35,1160.01 1711.56,1161.44"/>
    </edge>
    <edge id=":2170608071_0" function="internal">
        <lane id=":2170608071_0_0" index="0" disallow="tram rail_urban rail rail_electric rail_fast ship" speed="3.65" length="4.67" shape="1320.72,1208.77 1319.52,1207.97 1319.12,1207.17 1319.52,1206.37 1320.72,1205.57"/>
    </edge>
    <edge id=":2208655968_0" function="internal">
        <lane id=":2208655968_0_0" index="0" disallow="tram rail_urban rail rail_electric rail_fast ship" speed="3.65" length="4.67" shape="1265.60,1113.51 1264.40,1112.71 1264.00,1111.91 1264.40,1111.11 1265.60,1110.31"/>
    </edge>
    <edge id=":2259765087_0" function="internal">
        <lane id=":2259765087_0_0" index="0" disallow="tram rail_urban rail rail_electric rail_fast ship" speed="3.65" length="4.67" shape="1510.41,1306.11 1509.61,1307.31 1508.81,1307.71 1508.01,1307.31 1507.21,1306.11"/>
    </edge>
    <edge id=":4238980067_0" function="internal">
        <lane id=":4238980067_0_0" index="0" allow="pedestrian delivery bicycle" speed="3.65" length="4.67" shape="1324.21,580.63 1325.06,579.47 1325.88,579.10 1326.66,579.54 1327.41,580.77"/>
    </edge>
    <edge id=":557567711_0" function="internal">
        <lane id=":557567711_0_0" index="0" disallow="tram rail_urban rail rail_electric rail_fast ship" speed="3.65" length="4.67" shape="1768.88,1060.10 1767.68,1059.30 1767.28,1058.50 1767.68,1057.70 1768.88,1056.90"/>
    </edge>
    <edge id=":557577663_0" function="internal">
        <lane id=":557577663_0_0" index="0" disallow="tram rail_urban rail rail_electric rail_fast ship" speed="22.22" length="8.09" shape="1603.05,812.94 1600.69,813.30 1599.12,813.91 1597.55,814.48 1595.18,814.73"/>
        <lane id=":557577663_0_1" index="1" disallow="tram rail_urban rail rail_electric rail_fast ship" speed="22.22" length="8.09" shape="1603.05,812.94 1600.70,812.80 1599.12,812.31 1597.54,811.78 1595.18,811.53"/>
    </edge>
    <edge id=":557612984_0" function="internal">
        <lane id=":557612984_0_0" index="0" disallow="tram rail_urban rail rail_electric rail_fast ship" speed="3.65" length="4.67" shape="2505.88,974.18 2507.08,974.98 2507.48,975.78 2507.08,976.58 2505.88,977.38"/>
    </edge>
    <edge id=":5716499035_0" function="internal">
        <lane id=":5716499035_0_0" index="0" disallow="tram rail_urban rail rail_electric rail_fast ship" speed="13.89" length="5.00" shape="1712.90,790.81 1712.88,795.81"/>
    </edge>
    <edge id=":5716499035_1" function="internal">
        <lane id=":5716499035_1_0" index="0" disallow="tram rail_urban rail rail_electric rail_fast ship" speed="13.89" length="5.00" shape="1709.68,795.79 1709.70,790.79"/>
    </edge>
    <edge id=":5716502007_0" function="internal">
        <lane id=":5716502007_0_0" index="0" allow="pedestrian delivery bicycle" speed="5.56" length="5.12" shape="1701.54,819.65 1701.39,814.53"/>
    </edge>
    <edge id=":5716502007_1" function="internal">
        <lane id=":5716502007_1_0" index="0" allow="pedestrian delivery bicycle" speed="3.65" length="1.44" shape="1701.54,819.65 1702.30,818.43"/>
    </edge>
    <edge id=":5716502007_4" function="internal">
        <lane id=":5716502007_4_0" index="0" allow="pedestrian delivery bicycle" speed="3.65" length="3.23" shape="1702.30,818.43 1703.09,818.00 1703.90,818.38 1704.74,819.55"/>
    </edge>
    <edge id=":5716502007_2" function="internal">
        <lane id=":5716502007_2_0" index="0" allow="pedestrian delivery bicycle" speed="5.56" length="5.12" shape="1704.58,814.43 1704.74,819.55"/>
    </edge>
    <edge id=":5716502007_3" function="internal">
        <lane id=":5716502007_3_0" index="0" allow="pedestrian delivery bicycle" speed="3.65" length="1.44" shape="1704.58,814.43 1703.82,815.66"/>
    </edge>
    <edge id=":5716502007_5" function="internal">
        <lane id=":5716502007_5_0" index="0" allow="pedestrian delivery bicycle" speed="3.65" length="3.23" shape="1703.82,815.66 1703.03,816.08 1702.22,815.70 1701.39,814.53"/>
    </edge>
    <edge id=":5821751734_0" function="internal">
        <lane id=":5821751734_0_0" index="0" allow="pedestrian delivery bicycle" speed="5.07" length="5.05" shape="1390.07,777.51 1388.71,777.69 1387.73,778.26 1387.13,779.24 1386.91,780.63"/>
    </edge>
    <edge id=":5821751734_1" function="internal">
        <lane id=":5821751734_1_0" index="0" allow="pedestrian delivery bicycle" speed="5.56" length="9.43" shape="1390.07,777.51 1380.64,777.43"/>
    </edge>
    <edge id=":5821751734_2" function="internal">
        <lane id=":5821751734_2_0" index="0" allow="pedestrian delivery bicycle" speed="3.65" length="4.67" shape="1390.07,777.51 1388.88,776.69 1388.49,775.89 1388.91,775.09 1390.12,774.31"/>
    </edge>
    <edge id=":5821751734_3" function="internal">
        <lane id=":5821751734_3_0" index="0" allow="pedestrian delivery bicycle" speed="5.56" length="9.49" shape="1380.63,774.23 1390.12,774.31"/>
    </edge>
    <edge id=":5821751734_4" function="internal">
        <lane id=":5821751734_4_0" index="0" allow="pedestrian delivery bicycle" speed="5.56" length="10.26" shape="1380.63,774.23 1383.43,774.63 1385.40,775.83 1386.56,777.83 1386.91,780.63"/>
    </edge>
    <edge id=":5821751734_5" function="internal">
        <lane id=":5821751734_5_0" index="0" allow="pedestrian delivery bicycle" speed="3.65" length="4.67" shape="1380.63,774.23 1381.83,775.03 1382.24,775.83 1381.84,776.63 1380.64,777.43"/>
    </edge>
    <edge id=":5821751734_6" function="internal">
        <lane id=":5821751734_6_0" index="0" allow="pedestrian delivery bicycle" speed="5.02" length="5.02" shape="1383.71,780.56 1383.54,779.19 1382.97,778.21 1382.00,777.63 1380.64,777.43"/>
    </edge>
    <edge id=":5821751734_7" function="internal">
        <lane id=":5821751734_7_0" index="0" allow="pedestrian delivery bicycle" speed="5.56" length="10.21" shape="1383.71,780.56 1384.15,777.79 1385.37,775.82 1387.36,774.66 1390.12,774.31"/>
    </edge>
    <edge id=":5821751734_8" function="internal">
        <lane id=":5821751734_8_0" index="0" allow="pedestrian delivery bicycle" speed="3.65" length="4.67" shape="1383.71,780.56 1384.53,779.38 1385.34,778.99 1386.13,779.41 1386.91,780.63"/>
    </edge>
    <edge id=":5821751742_0" function="internal">
        <lane id=":5821751742_0_0" index="0" allow="pedestrian delivery bicycle" speed="5.56" length="7.05" shape="1325.23,694.13 1323.13,694.00 1321.64,693.94 1320.25,694.26 1318.50,695.28"/>
    </edge>
    <edge id=":5821751742_1" function="internal">
        <lane id=":5821751742_1_0" index="0" allow="pedestrian delivery bicycle" speed="5.56" length="11.28" shape="1325.23,694.13 1322.09,693.61 1320.09,692.20 1319.23,689.90 1319.52,686.73"/>
    </edge>
    <edge id=":5821751742_2" function="internal">
        <lane id=":5821751742_2_0" index="0" allow="pedestrian delivery bicycle" speed="3.65" length="4.67" shape="1325.23,694.13 1324.05,693.31 1323.67,692.50 1324.09,691.71 1325.31,690.93"/>
    </edge>
    <edge id=":5821751742_3" function="internal">
        <lane id=":5821751742_3_0" index="0" allow="pedestrian delivery bicycle" speed="4.84" length="5.27" shape="1322.64,687.47 1322.50,688.96 1322.90,690.03 1323.83,690.69 1325.31,690.93"/>
    </edge>
    <edge id=":5821751742_4" function="internal">
        <lane id=":5821751742_4_0" index="0" allow="pedestrian delivery bicycle" speed="5.56" length="9.19" shape="1322.64,687.47 1322.07,690.15 1321.54,692.04 1320.53,693.60 1318.50,695.28"/>
    </edge>
    <edge id=":5821751742_5" function="internal">
        <lane id=":5821751742_5_0" index="0" allow="pedestrian delivery bicycle" speed="3.65" length="4.67" shape="1322.64,687.47 1321.58,688.45 1320.71,688.65 1320.02,688.08 1319.52,686.73"/>
    </edge>
    <edge id=":5821751742_6" function="internal">
        <lane id=":5821751742_6_0" index="0" allow="pedestrian delivery bicycle" speed="5.56" length="6.85" shape="1316.67,692.65 1318.14,691.38 1318.82,690.18 1319.13,688.74 1319.52,686.73"/>
    </edge>
    <edge id=":5821751742_7" function="internal">
        <lane id=":5821751742_7_0" index="0" allow="pedestrian delivery bicycle" speed="5.56" length="9.08" shape="1316.67,692.65 1318.92,691.31 1320.69,690.81 1322.61,690.81 1325.31,690.93"/>
    </edge>
    <edge id=":5821751742_8" function="internal">
        <lane id=":5821751742_8_0" index="0" allow="pedestrian delivery bicycle" speed="3.65" length="4.67" shape="1316.67,692.65 1318.11,692.62 1318.89,693.05 1319.02,693.93 1318.50,695.28"/>
    </edge>
    <edge id=":5821751743_0" function="internal">
        <lane id=":5821751743_0_0" index="0" allow="pedestrian delivery bicycle" speed="5.56" length="9.64" shape="1367.61,777.44 1357.97,777.44"/>
    </edge>
    <edge id=":5821751743_1" function="internal">
        <lane id=":5821751743_1_0" index="0" allow="pedestrian delivery bicycle" speed="5.56" length="10.45" shape="1367.61,777.44 1365.24,777.02 1363.28,775.77 1361.74,773.69 1360.61,770.77"/>
    </edge>
    <edge id=":5821751743_2" function="internal">
        <lane id=":5821751743_2_0" index="0" allow="pedestrian delivery bicycle" speed="3.65" length="4.67" shape="1367.61,777.44 1366.41,776.64 1366.01,775.84 1366.41,775.04 1367.61,774.24"/>
    </edge>
    <edge id=":5821751743_3" function="internal">
        <lane id=":5821751743_3_0" index="0" allow="pedestrian delivery bicycle" speed="5.56" length="6.26" shape="1363.69,769.92 1364.39,771.81 1365.27,773.16 1366.34,773.97 1367.61,774.24"/>
    </edge>
    <edge id=":5821751743_4" function="internal">
        <lane id=":5821751743_4_0" index="0" allow="pedestrian delivery bicycle" speed="5.56" length="11.61" shape="1363.69,769.92 1364.12,773.21 1363.30,775.56 1361.25,776.97 1357.97,777.44"/>
    </edge>
    <edge id=":5821751743_5" function="internal">
        <lane id=":5821751743_5_0" index="0" allow="pedestrian delivery bicycle" speed="3.65" length="4.67" shape="1363.69,769.92 1363.24,771.29 1362.58,771.89 1361.70,771.71 1360.61,770.77"/>
    </edge>
    <edge id=":5821751743_6" function="internal">
        <lane id=":5821751743_6_0" index="0" allow="pedestrian delivery bicycle" speed="4.80" length="5.36" shape="1357.97,774.24 1359.48,774.02 1360.43,773.37 1360.80,772.29 1360.61,770.77"/>
    </edge>
    <edge id=":5821751743_7" function="internal">
        <lane id=":5821751743_7_0" index="0" allow="pedestrian delivery bicycle" speed="5.56" length="9.64" shape="1357.97,774.24 1367.61,774.24"/>
    </edge>
    <edge id=":5821751743_8" function="internal">
        <lane id=":5821751743_8_0" index="0" allow="pedestrian delivery bicycle" speed="3.65" length="4.67" shape="1357.97,774.24 1359.17,775.04 1359.57,775.84 1359.17,776.64 1357.97,777.44"/>
    </edge>
    <edge id=":5835965617_0" function="internal">
        <lane id=":5835965617_0_0" index="0" allow="pedestrian delivery bicycle" speed="5.56" length="5.13" shape="1386.74,789.09 1386.64,794.21"/>
    </edge>
    <edge id=":5835965617_1" function="internal">
        <lane id=":5835965617_1_0" index="0" allow="pedestrian delivery bicycle" speed="3.65" length="1.44" shape="1386.74,789.09 1385.92,790.27"/>
    </edge>
    <edge id=":5835965617_4" function="internal">
        <lane id=":5835965617_4_0" index="0" allow="pedestrian delivery bicycle" speed="3.65" length="3.23" shape="1385.92,790.27 1385.11,790.65 1384.32,790.24 1383.54,789.02"/>
    </edge>
    <edge id=":5835965617_2" function="internal">
        <lane id=":5835965617_2_0" index="0" allow="pedestrian delivery bicycle" speed="5.56" length="5.13" shape="1383.44,794.15 1383.54,789.02"/>
    </edge>
    <edge id=":5835965617_3" function="internal">
        <lane id=":5835965617_3_0" index="0" allow="pedestrian delivery bicycle" speed="3.65" length="1.44" shape="1383.44,794.15 1384.26,792.96"/>
    </edge>
    <edge id=":5835965617_5" function="internal">
        <lane id=":5835965617_5_0" index="0" allow="pedestrian delivery bicycle" speed="3.65" length="3.23" shape="1384.26,792.96 1385.07,792.58 1385.86,793.00 1386.64,794.21"/>
    </edge>
    <edge id=":5843887051_0" function="internal">
        <lane id=":5843887051_0_0" index="0" disallow="tram rail_urban rail rail_electric rail_fast ship" speed="13.89" length="6.20" shape="1914.78,727.18 1914.72,733.38"/>
    </edge>
    <edge id=":5843887051_1" function="internal">
        <lane id=":5843887051_1_0" index="0" allow="pedestrian delivery bicycle" speed="6.09" length="1.67" shape="1914.78,727.18 1914.37,728.53 1914.17,728.70"/>
    </edge>
    <edge id=":5843887051_4" function="internal">
        <lane id=":5843887051_4_0" index="0" allow="pedestrian delivery bicycle" speed="6.09" length="6.08" shape="1914.17,728.70 1913.18,729.49 1911.21,730.05 1908.45,730.23"/>
    </edge>
    <edge id=":5843887051_2" function="internal">
        <lane id=":5843887051_2_0" index="0" allow="pedestrian delivery bicycle" speed="5.04" length="5.00" shape="1911.52,733.35 1911.34,731.99 1910.77,731.02 1909.80,730.43 1908.45,730.23"/>
    </edge>
    <edge id=":5843887051_3" function="internal">
        <lane id=":5843887051_3_0" index="0" disallow="tram rail_urban rail rail_electric rail_fast ship" speed="13.89" length="6.20" shape="1911.52,733.35 1911.58,727.15"/>
    </edge>
    <edge id=":5843887052_0" function="internal">
        <lane id=":5843887052_0_0" index="0" allow="pedestrian delivery bicycle" speed="5.56" length="7.75" shape="1829.58,786.76 1829.33,789.51 1828.71,791.46 1827.72,792.63 1826.36,793.00"/>
    </edge>
    <edge id=":5843887052_1" function="internal">
        <lane id=":5843887052_1_0" index="0" allow="pedestrian delivery bicycle" speed="3.65" length="4.67" shape="1826.42,789.80 1827.60,790.62 1827.99,791.42 1827.58,792.22 1826.36,793.00"/>
    </edge>
    <edge id=":5843887053_0" function="internal">
        <lane id=":5843887053_0_0" index="0" allow="pedestrian delivery bicycle" speed="5.56" length="7.71" shape="1813.25,792.77 1811.93,792.36 1810.99,791.16 1810.42,789.19 1810.24,786.44"/>
    </edge>
    <edge id=":5843887053_1" function="internal">
        <lane id=":5843887053_1_0" index="0" allow="pedestrian delivery bicycle" speed="3.65" length="4.67" shape="1813.25,792.77 1812.07,791.95 1811.68,791.15 1812.09,790.35 1813.31,789.57"/>
    </edge>
    <edge id=":5843887056_0" function="internal">
        <lane id=":5843887056_0_0" index="0" disallow="tram rail_urban rail rail_electric rail_fast ship" speed="13.89" length="6.66" shape="1914.97,705.52 1914.91,712.17"/>
    </edge>